60
Energy =
C    -1.2342948    0.0000000    3.3400233 
C    -0.3814181   -1.1738841    3.3400233 
C     0.9985655   -0.7255003    3.3400233 
C     0.9985655    0.7255003    3.3400233 
C    -0.3814181    1.1738841    3.3400233 
C     2.3517096   -2.6053847    0.6005597 
C     3.2045863   -1.4315006    0.6005597 
C     2.9688570   -0.7060003    1.8348545 
C     1.9702915   -1.4315006    2.5976907 
C     1.5888734   -2.6053847    1.8348545 
C     3.2045863    1.4315006    0.6005597 
C     2.3517096    2.6053847    0.6005597 
C     1.5888734    2.6053847    1.8348545 
C     1.9702915    1.4315006    2.5976907 
C     2.9688570    0.7060003    1.8348545 
C    -0.3711663    3.4901007    0.6005597 
C    -1.7511499    3.0417169    0.6005597 
C    -1.9868792    2.3162166    1.8348545 
C    -0.7525844    2.3162166    2.5976907 
C     0.2459811    3.0417169    1.8348545 
C    -3.4339797    0.7255003    0.6005597 
C    -3.4339797   -0.7255003    0.6005597 
C    -2.8168323   -1.1738841    1.8348545 
C    -2.4354142    0.0000000    2.5976907 
C    -2.8168323    1.1738841    1.8348545 
C    -1.7511499   -3.0417169    0.6005597 
C    -0.3711663   -3.4901007    0.6005597 
C     0.2459811   -3.0417169    1.8348545 
C    -0.7525844   -2.3162166    2.5976907 
C    -1.9868792   -2.3162166    1.8348545 
C    -0.2459811   -3.0417169   -1.8348545 
C     0.7525844   -2.3162166   -2.5976907 
C     1.9868792   -2.3162166   -1.8348545 
C     1.7511499   -3.0417169   -0.6005597 
C     0.3711663   -3.4901007   -0.6005597 
C     2.8168323   -1.1738841   -1.8348545 
C     2.4354142    0.0000000   -2.5976907 
C     2.8168323    1.1738841   -1.8348545 
C     3.4339797    0.7255003   -0.6005597 
C     3.4339797   -0.7255003   -0.6005597 
C     1.9868792    2.3162166   -1.8348545 
C     0.7525844    2.3162166   -2.5976907 
C    -0.2459811    3.0417169   -1.8348545 
C     0.3711663    3.4901007   -0.6005597 
C     1.7511499    3.0417169   -0.6005597 
C    -1.5888734    2.6053847   -1.8348545 
C    -1.9702915    1.4315006   -2.5976907 
C    -2.9688570    0.7060003   -1.8348545 
C    -3.2045863    1.4315006   -0.6005597 
C    -2.3517096    2.6053847   -0.6005597 
C    -2.9688570   -0.7060003   -1.8348545 
C    -1.9702915   -1.4315006   -2.5976907 
C    -1.5888734   -2.6053847   -1.8348545 
C    -2.3517096   -2.6053847   -0.6005597 
C    -3.2045863   -1.4315006   -0.6005597 
C    -0.9985655   -0.7255003   -3.3400233 
C    -0.9985655    0.7255003   -3.3400233 
C     0.3814181    1.1738841   -3.3400233 
C     1.2342948    0.0000000   -3.3400233 
C     0.3814181   -1.1738841   -3.3400233 
