12
Energy = -232.0765631320
C     1.2176772   -0.7030262    0.0000000 
C     1.2176772    0.7030262    0.0000000 
C     0.0000000    1.4060525    0.0000000 
C    -1.2176772    0.7030262    0.0000000 
C    -1.2176772   -0.7030262    0.0000000 
C     0.0000000   -1.4060525    0.0000000 
H     2.1729364   -1.2545454    0.0000000 
H     2.1729364    1.2545454    0.0000000 
H     0.0000000    2.5090909    0.0000000 
H    -2.1729364    1.2545454    0.0000000 
H    -2.1729364   -1.2545454    0.0000000 
H    -0.0000000   -2.5090909    0.0000000 
